# Packages
 &PACKAGES
#useGMRedi =.TRUE.,
 useGGL90 =.TRUE.,
#useKPP =.TRUE.,
 useOBCS = .TRUE.,
 useCAL = .TRUE.,
 useEXF = .true.,
 useDiagnostics = .true.,
#
 useAUTODIFF   =.TRUE.,
 useECCO       =.TRUE.,
 useCTRL       =.TRUE.,
 &
