# =========================
# pkg AUTODIFF parameters :
# =========================
#  inAdExact :: get an exact adjoint (no approximation) (def=.True.)
#
 &AUTODIFF_PARM01
# inAdExact = .FALSE.,
 useApproxAdvectionInAdMode = .TRUE.,
#useKPPinAdMode = .FALSE.,
#useGGL90inAdMode = .FALSE.,
#useGMRediInAdMode = .FALSE.,
#viscFacInAd = 2.,
#viscFacInFw = 1.,
 &
