# ******************
# cost function
# ******************
 &COST_NML
#
#mult_test = 0.,
#lastinterval= 864000.,
 &
