 &EEPARMS
 nTx=1,
 nTy=1,
 useCubedSphereExchange = .FALSE.,
 printMapIncludesZeros = .FALSE.
 &
